$ Mods to get this to run in MYSTRAN:
$
$  1. Change SOL 101 to SOL 1
$  2. Change SET 101 = 1,thru,3096 to SET 101 = 1,THRU,3096
$  3. Move SPC = 2 above subcase level
$  4. Change oload(punch) to OLOAD
$  5. Comment out DISPLACEMENT(PLOT,SORT1,REAL)=ALL for S/C 2
$  6. Change SPCFORCES(SORT1,REAL)=ALL to SPCFORCES=ALL
$  7. Remove REPCASE
$  8. Change the PLOAD4 load to a PLOAD2 format
$  9. Add SEQGP cards
$ 10. Add SPC1 set 31 cards to remove singularities MYSTRAN found in the singularity processor
$ 11. Change Sandra's SPCADD to include set 31 (above)
$ 12. Add DISP = ALL above S/C level
$ 13. Add OLOAD = ALL above S/C level
$ 12. Add SPCFORCES = ALL above S/C level
$ 13. Add ELFORCE(NODE) = ALL above S/C level
$ 15. Add STRESS = ALL above S/C level
$ 16. Add PARAM SORT_MAX 20 (after adding SEQGP cards, SORT had trouble sorting TDOF array with the default SORT_MAX
$ 17. Add PARAM PRTDOF 
$ 18. Add PARAM SUPMSG
$ 19. Add ECHO = UNSORT
$ 20. Add SPC1 set 32 cards to remove singularity at 60001 (MYSTRAN did not find in the sing processor, but were 0 stiff on diag)
$ 21. Add SPC1 set 33 cards to remove singularities (MYSTRAN found in the singularity processor after EPS_SINGULAR)
$ 
ID IRISH,LWIRD
$~~~~~~~~~~~~~~~~~~~~~~~~~~~~~~~~~~~~~~~~~~~~~~~~~~~~~~~~~~~~~~~~
$
$              Goddard Mirror on 3 ball points
$      Two missing patches on backplate - rough mesh
$  Reduces mirror core thickness to 0.045" (from 0.050") and
$      updates core strut thicknesses to measured values at
$      mountpad locations.
$                 -->  Baseline 1G backout 
$                      August 26, 2002 
$ 
$---> October 25, 2002:  Updated backplate t = 0.15" (pshellr.2)
$                        Updated frontplate t= 0.11" (pshellr.1)
$                        --> meas. provided by Pat Clark
$~~~~~~~~~~~~~~~~~~~~~~~~~~~~~~~~~~~~~~~~~~~~~~~~~~~~~~~~~~~~~~~~
$$SOL 101
SOL 1
TIME 5
$ Direct Text Input for Executive Control
CEND
$SEALL = ALL
$SUPER = ALL
$ECHO = PUNCH
MAXLINES = 999999999
$
$$SET 101 = 1,thru,3096
SET 101 = 1,THRU,3096
$ Direct Text Input for Global Case Control Data
ECHO = NONE
SPC = 2
DISP = ALL
OLOAD = ALL
SPCFORCES = ALL
ELFORCE(NODE) = ALL
STRESS = ALL 
SUBCASE 1
  Subcase name : Oload
   SUBTITLE=Oload
$  SPC = 2
  LOAD = 2
$$ oload(punch)=ALL
$  OLOAD = ALL
SUBCASE 2
  Subcase name : 1G
   SUBTITLE=1G
$  SPC = 2
   LOAD = 4
$$ DISPLACEMENT(PLOT,SORT1,REAL)=ALL
$  DISPLACEMENT = ALL
$$ SPCFORCES(SORT1,REAL)=ALL
$  SPCFORCES = ALL
$   STRESS(SORT1,REAL,VONMISES,BILIN)=ALL
$$REPCASE 3
$$   DISP(PUNCH)=101

BEGIN BULK
PARAM,GRDPNT,60001
PARAM    POST    -1
PARAM,NOCOMPS,-1
PARAM   PRTMAXIM YES
PARAM,K6ROT,1.
PARAM,SNORM,20.
PARAM,AUTOSPC,YES
PARAM   SORT_MAX 20
PARAM   PRTDOF   2
PARAM   SUPMSG   Y
PARAM   PRTSTIFD 1                       1
PARAM   EPS_SING 0.
PARAM   RCONDK   Y
PARAM   AUTOSPC  Y      .00005
PARAM   PCHSPC1  Y
$ Direct Text Input for Bulk Data
$ Elements and Element Properties for region : pshellr.1
PSHELL   1       1       .11     1               1
$ Pset: "pshellr.1" will be imported as: "pshell.1"
CTRIA3   1       1       1       166     2       0.
CTRIA3   2       1       164     2       166     0.
CTRIA3   3       1       166     165     164     0.
CTRIA3   4       1       162     164     165     0.
CTRIA3   5       1       165     161     162     0.
CTRIA3   6       1       2       164     3       0.
CTRIA3   7       1       163     3       164     0.
CTRIA3   8       1       164     162     163     0.
CTRIA3   9       1       3       163     4       0.
CTRIA3   10      1       117     168     124     0.
CTRIA3   11      1       125     124     168     0.
CTRIA3   12      1       168     167     125     0.
CTRIA3   13      1       4       163     5       0.
CTRIA3   14      1       169     5       163     0.
CTRIA3   15      1       163     162     169     0.
CTRIA3   16      1       167     169     162     0.
CTRIA3   17      1       162     161     167     0.
CTRIA3   18      1       5       169     6       0.
CTRIA3   19      1       168     6       169     0.
CTRIA3   20      1       169     167     168     0.
$ ... 777 like lines cut
CQUAD4   798     1       159     160     445     446     0.
CQUAD4   799     1       134     133     447     448     0.
CQUAD4   800     1       133     135     449     447     0.
CQUAD4   801     1       135     127     450     449     0.
CQUAD4   802     1       127     136     451     450     0.
CQUAD4   803     1       136     137     452     451     0.
CQUAD4   804     1       137     138     453     452     0.
CQUAD4   805     1       138     139     454     453     0.
CQUAD4   806     1       139     140     455     454     0.
CQUAD4   807     1       140     128     456     455     0.
CQUAD4   808     1       128     141     457     456     0.
CQUAD4   809     1       141     142     458     457     0.
CQUAD4   810     1       142     143     459     458     0.
CQUAD4   811     1       143     144     460     459     0.
CQUAD4   812     1       144     145     461     460     0.
CQUAD4   813     1       145     129     462     461     0.
CQUAD4   814     1       129     146     463     462     0.
CQUAD4   815     1       146     147     464     463     0.
CQUAD4   816     1       147     130     465     464     0.
CQUAD4   817     1       130     148     466     465     0.
$ ... 13 like lines cut
CTRIA3   831     1       479     604     480     0.
CTRIA3   832     1       602     480     604     0.
CTRIA3   833     1       604     603     602     0.
CTRIA3   834     1       600     602     603     0.
CTRIA3   835     1       603     599     600     0.
CTRIA3   836     1       480     602     481     0.
CTRIA3   837     1       601     481     602     0.
CTRIA3   838     1       602     600     601     0.
CTRIA3   839     1       481     601     482     0.
CTRIA3   840     1       558     606     564     0.
CTRIA3   841     1       565     564     606     0.
CTRIA3   842     1       606     605     565     0.
CTRIA3   843     1       482     601     483     0.
CTRIA3   844     1       607     483     601     0.
CTRIA3   845     1       601     600     607     0.
CTRIA3   846     1       605     607     600     0.
CTRIA3   847     1       600     599     605     0.
CTRIA3   848     1       483     607     484     0.
CTRIA3   849     1       606     484     607     0.
CTRIA3   850     1       607     605     606     0.
$ ... 557 like lines cut
CQUAD4   1408    1       598     134     448     814     0.
CQUAD4   1409    1       574     573     815     816     0.
CQUAD4   1410    1       573     575     817     815     0.
CQUAD4   1411    1       575     567     818     817     0.
CQUAD4   1412    1       567     576     819     818     0.
CQUAD4   1413    1       576     577     820     819     0.
CQUAD4   1414    1       577     578     821     820     0.
CQUAD4   1415    1       578     579     822     821     0.
CQUAD4   1416    1       579     580     823     822     0.
CQUAD4   1417    1       580     568     824     823     0.
CQUAD4   1418    1       568     581     825     824     0.
CQUAD4   1419    1       581     582     826     825     0.
CQUAD4   1420    1       582     583     827     826     0.
CQUAD4   1421    1       583     584     828     827     0.
CQUAD4   1422    1       584     585     829     828     0.
CQUAD4   1423    1       585     569     830     829     0.
CQUAD4   1424    1       569     586     831     830     0.
CQUAD4   1425    1       586     587     832     831     0.
CQUAD4   1426    1       587     570     833     832     0.
CQUAD4   1427    1       570     588     834     833     0.
$ ... 11 like lines cut
CTRIA3   1439    1       994     846     996     0.
CTRIA3   1440    1       996     995     994     0.
CTRIA3   1441    1       992     994     995     0.
CTRIA3   1442    1       995     991     992     0.
CTRIA3   1443    1       846     994     847     0.
CTRIA3   1444    1       993     847     994     0.
CTRIA3   1445    1       994     992     993     0.
CTRIA3   1446    1       847     993     848     0.
CTRIA3   1447    1       949     998     955     0.
CTRIA3   1448    1       956     955     998     0.
CTRIA3   1449    1       998     997     956     0.
CTRIA3   1450    1       848     993     849     0.
CTRIA3   1451    1       999     849     993     0.
CTRIA3   1452    1       993     992     999     0.
CTRIA3   1453    1       997     999     992     0.
CTRIA3   1454    1       992     991     997     0.
CTRIA3   1455    1       849     999     850     0.
CTRIA3   1456    1       998     850     999     0.
CTRIA3   1457    1       999     997     998     0.
CTRIA3   1458    1       850     998     949     0.
$ ... 727 like lines cut
CQUAD4   2186    1       990     574     816     1247    0.
CQUAD4   2187    1       965     964     1248    1249    0.
CQUAD4   2188    1       964     966     1250    1248    0.
CQUAD4   2189    1       966     958     1251    1250    0.
CQUAD4   2190    1       958     967     1252    1251    0.
CQUAD4   2191    1       967     968     1253    1252    0.
CQUAD4   2192    1       968     969     1254    1253    0.
CQUAD4   2193    1       969     970     1255    1254    0.
CQUAD4   2194    1       970     971     1256    1255    0.
CQUAD4   2195    1       971     959     1257    1256    0.
CQUAD4   2196    1       959     972     1258    1257    0.
CQUAD4   2197    1       972     973     1259    1258    0.
CQUAD4   2198    1       973     974     1260    1259    0.
CQUAD4   2199    1       974     975     1261    1260    0.
CQUAD4   2200    1       975     976     1262    1261    0.
CQUAD4   2201    1       976     960     1263    1262    0.
CQUAD4   2202    1       960     977     1264    1263    0.
CQUAD4   2203    1       977     978     1265    1264    0.
CQUAD4   2204    1       978     961     1266    1265    0.
CQUAD4   2205    1       961     979     1267    1266    0.
$ ... 13 like lines cut
CTRIA3   2219    1       1280    1407    1281    0.
CTRIA3   2220    1       1405    1281    1407    0.
CTRIA3   2221    1       1407    1406    1405    0.
CTRIA3   2222    1       1403    1405    1406    0.
CTRIA3   2223    1       1406    1402    1403    0.
CTRIA3   2224    1       1281    1405    1282    0.
CTRIA3   2225    1       1404    1282    1405    0.
CTRIA3   2226    1       1405    1403    1404    0.
CTRIA3   2227    1       1282    1404    1283    0.
CTRIA3   2228    1       1361    1409    1367    0.
CTRIA3   2229    1       1368    1367    1409    0.
CTRIA3   2230    1       1409    1408    1368    0.
CTRIA3   2231    1       1283    1404    1284    0.
CTRIA3   2232    1       1410    1284    1404    0.
CTRIA3   2233    1       1404    1403    1410    0.
CTRIA3   2234    1       1408    1410    1403    0.
CTRIA3   2235    1       1403    1402    1408    0.
CTRIA3   2236    1       1284    1410    1285    0.
CTRIA3   2237    1       1409    1285    1410    0.
CTRIA3   2238    1       1410    1408    1409    0.
$ ... 534 like lines cut
CQUAD4   2773    1       1401    965     1249    1604    0.
CQUAD4   2774    1       1377    1376    1605    1606    0.
CQUAD4   2775    1       1376    1378    1607    1605    0.
CQUAD4   2776    1       1378    1370    1608    1607    0.
CQUAD4   2777    1       1370    1379    1609    1608    0.
CQUAD4   2778    1       1379    1380    1610    1609    0.
CQUAD4   2779    1       1380    1381    1611    1610    0.
CQUAD4   2780    1       1381    1382    1612    1611    0.
CQUAD4   2781    1       1382    1383    1613    1612    0.
CQUAD4   2782    1       1383    1371    1614    1613    0.
CQUAD4   2783    1       1371    1384    1615    1614    0.
CQUAD4   2784    1       1384    1385    1616    1615    0.
CQUAD4   2785    1       1385    1386    1617    1616    0.
CQUAD4   2786    1       1386    1387    1618    1617    0.
CQUAD4   2787    1       1387    1388    1619    1618    0.
CQUAD4   2788    1       1388    1372    1620    1619    0.
CQUAD4   2789    1       1372    1389    1621    1620    0.
CQUAD4   2790    1       1389    1390    1622    1621    0.
CQUAD4   2791    1       1390    1373    1623    1622    0.
CQUAD4   2792    1       1373    1391    1624    1623    0.
$ ... 11 like lines cut
CTRIA3   2804    1       1785    1636    1787    0.
CTRIA3   2805    1       1787    1786    1785    0.
CTRIA3   2806    1       1783    1785    1786    0.
CTRIA3   2807    1       1786    1782    1783    0.
CTRIA3   2808    1       1636    1785    1637    0.
CTRIA3   2809    1       1784    1637    1785    0.
CTRIA3   2810    1       1785    1783    1784    0.
CTRIA3   2811    1       1637    1784    1638    0.
CTRIA3   2812    1       1740    1789    1746    0.
CTRIA3   2813    1       1747    1746    1789    0.
CTRIA3   2814    1       1789    1788    1747    0.
CTRIA3   2815    1       1638    1784    1639    0.
CTRIA3   2816    1       1790    1639    1784    0.
CTRIA3   2817    1       1784    1783    1790    0.
CTRIA3   2818    1       1788    1790    1783    0.
CTRIA3   2819    1       1783    1782    1788    0.
CTRIA3   2820    1       1639    1790    1640    0.
CTRIA3   2821    1       1789    1640    1790    0.
CTRIA3   2822    1       1790    1788    1789    0.
CTRIA3   2823    1       1640    1789    1740    0.
$ ... 750 like lines cut
CQUAD4   3574    1       1781    1377    1606    2047    0.
CQUAD4   3575    1       1756    1755    2048    2049    0.
CQUAD4   3576    1       1755    1757    2050    2048    0.
CQUAD4   3577    1       1757    1749    2051    2050    0.
CQUAD4   3578    1       1749    1758    2052    2051    0.
CQUAD4   3579    1       1758    1759    2053    2052    0.
CQUAD4   3580    1       1759    1760    2054    2053    0.
CQUAD4   3581    1       1760    1761    2055    2054    0.
CQUAD4   3582    1       1761    1762    2056    2055    0.
CQUAD4   3583    1       1762    1750    2057    2056    0.
CQUAD4   3584    1       1750    1763    2058    2057    0.
CQUAD4   3585    1       1763    1764    2059    2058    0.
CQUAD4   3586    1       1764    1765    2060    2059    0.
CQUAD4   3587    1       1765    1766    2061    2060    0.
CQUAD4   3588    1       1766    1767    2062    2061    0.
CQUAD4   3589    1       1767    1751    2063    2062    0.
CQUAD4   3590    1       1751    1768    2064    2063    0.
CQUAD4   3591    1       1768    1769    2065    2064    0.
CQUAD4   3592    1       1769    1752    2066    2065    0.
CQUAD4   3593    1       1752    1770    2067    2066    0.
$ ... 13 like lines cut
CTRIA3   3607    1       12      173     2080    0.
CTRIA3   3608    1       2208    2080    173     0.
CTRIA3   3609    1       173     172     2208    0.
CTRIA3   3610    1       2206    2208    172     0.
CTRIA3   3611    1       172     171     2206    0.
CTRIA3   3612    1       2080    2208    2081    0.
CTRIA3   3613    1       2207    2081    2208    0.
CTRIA3   3614    1       2208    2206    2207    0.
CTRIA3   3615    1       2081    2207    2082    0.
CTRIA3   3616    1       2166    2210    2172    0.
CTRIA3   3617    1       2173    2172    2210    0.
CTRIA3   3618    1       2210    2209    2173    0.
CTRIA3   3619    1       2082    2207    2083    0.
CTRIA3   3620    1       2211    2083    2207    0.
CTRIA3   3621    1       2207    2206    2211    0.
CTRIA3   3622    1       2209    2211    2206    0.
CTRIA3   3623    1       2206    171     2209    0.
CTRIA3   3624    1       2083    2211    2084    0.
CTRIA3   3625    1       2210    2084    2211    0.
CTRIA3   3626    1       2211    2209    2210    0.
$ ... 612 like lines cut
CQUAD4   4239    1       2205    1756    2049    2420    0.
CQUAD4   4240    1       160     2180    2421    445     0.
CQUAD4   4241    1       2180    2181    2422    2421    0.
CQUAD4   4242    1       2181    2174    2423    2422    0.
CQUAD4   4243    1       2174    2182    2424    2423    0.
CQUAD4   4244    1       2182    2183    2425    2424    0.
CQUAD4   4245    1       2183    2184    2426    2425    0.
CQUAD4   4246    1       2184    2185    2427    2426    0.
CQUAD4   4247    1       2185    2186    2428    2427    0.
CQUAD4   4248    1       2186    2175    2429    2428    0.
CQUAD4   4249    1       2175    2187    2430    2429    0.
CQUAD4   4250    1       2187    2188    2431    2430    0.
CQUAD4   4251    1       2188    2189    2432    2431    0.
CQUAD4   4252    1       2189    2190    2433    2432    0.
CQUAD4   4253    1       2190    2191    2434    2433    0.
CQUAD4   4254    1       2191    2176    2435    2434    0.
CQUAD4   4255    1       2176    2192    2436    2435    0.
CQUAD4   4256    1       2192    2193    2437    2436    0.
CQUAD4   4257    1       2193    2177    2438    2437    0.
CQUAD4   4258    1       2177    2194    2439    2438    0.
$ ... 13 like lines cut
CTRIA3   4272    1       256     2452    253     0.
CTRIA3   4273    1       257     44      2453    0.
CTRIA3   4274    1       2453    256     257     0.
CTRIA3   4275    1       253     2452    260     0.
CTRIA3   4276    1       266     2454    263     0.
CTRIA3   4277    1       267     51      2455    0.
CTRIA3   4278    1       2455    266     267     0.
CTRIA3   4279    1       2456    44      269     0.
CTRIA3   4280    1       269     268     2456    0.
CTRIA3   4281    1       263     2454    268     0.
CTRIA3   4282    1       134     2457    271     0.
CTRIA3   4283    1       2458    51      274     0.
CTRIA3   4284    1       274     273     2458    0.
CTRIA3   4285    1       271     2457    273     0.
CTRIA3   4286    1       495     618     2459    0.
CTRIA3   4287    1       2459    618     2460    0.
CTRIA3   4288    1       634     2460    618     0.
CTRIA3   4289    1       2460    634     496     0.
CTRIA3   4290    1       2463    2511    2464    0.
CTRIA3   4291    1       2509    2464    2511    0.
$ ... 422 like lines cut
CQUAD4   4714    1       572     2505    2652    845     0.
CQUAD4   4715    1       2505    598     814     2652    0.
CTRIA3   4716    1       2653    996     846     0.
CTRIA3   4717    1       2657    2669    2658    0.
CTRIA3   4718    1       2667    2658    2669    0.
CTRIA3   4719    1       2669    2668    2667    0.
CTRIA3   4720    1       2666    2667    2668    0.
CTRIA3   4721    1       2668    2665    2666    0.
CTRIA3   4722    1       2658    2667    864     0.
CTRIA3   4723    1       1025    864     2667    0.
CTRIA3   4724    1       2667    2666    1025    0.
CTRIA3   4725    1       2654    2672    2655    0.
CTRIA3   4726    1       2670    2655    2672    0.
CTRIA3   4727    1       2672    2671    2670    0.
CTRIA3   4728    1       2668    2670    2671    0.
CTRIA3   4729    1       2671    2665    2668    0.
CTRIA3   4730    1       2655    2670    2656    0.
CTRIA3   4731    1       2669    2656    2670    0.
CTRIA3   4732    1       2670    2668    2669    0.
CTRIA3   4733    1       2656    2669    2657    0.
CTRIA3   4734    1       2653    2675    2663    0.
CTRIA3   4735    1       2673    2663    2675    0.
$ ... 297 like lines cut
CQUAD4   5033    1       1394    2726    2807    1627    0.
CQUAD4   5034    1       2726    1374    1628    2807    0.
CTRIA3   5035    1       1296    1421    2694    0.
CTRIA3   5036    1       2694    1421    1297    0.
CTRIA3   5037    1       1474    2808    1473    0.
CTRIA3   5038    1       2749    1473    2808    0.
CTRIA3   5039    1       2808    2745    2749    0.
CTRIA3   5040    1       1473    2749    1472    0.
CTRIA3   5041    1       2809    1306    1475    0.
CTRIA3   5042    1       1475    2810    2809    0.
CTRIA3   5043    1       2808    2809    2810    0.
CTRIA3   5044    1       2810    2745    2808    0.
CTRIA3   5045    1       1306    2809    1305    0.
CTRIA3   5046    1       1474    1305    2809    0.
CTRIA3   5047    1       2809    2808    1474    0.
CTRIA3   5048    1       2694    2751    1296    0.
CTRIA3   5049    1       2811    1296    2751    0.
CTRIA3   5050    1       2751    2750    2811    0.
CTRIA3   5051    1       2810    2811    2750    0.
CTRIA3   5052    1       2750    2745    2810    0.
CTRIA3   5053    1       1296    2811    1295    0.
CTRIA3   5054    1       1475    1295    2811    0.
$ ... 688 like lines cut
$ Elements and Element Properties for region : pshellr.2
PSHELL   2       1       .15     1               1
$ Pset: "pshellr.2" will be imported as: "pshell.2"
CTRIA3   10001   2       10016   10015   10013   0.
CTRIA3   10002   2       10012   10013   10015   0.
CTRIA3   10003   2       10015   10014   10012   0.
CTRIA3   10004   2       10008   10012   10014   0.
CTRIA3   10005   2       10014   10007   10008   0.
CTRIA3   10006   2       10013   10012   10011   0.
CTRIA3   10007   2       10009   10011   10012   0.
CTRIA3   10008   2       10012   10008   10009   0.
CTRIA3   10009   2       10011   10009   10010   0.
CTRIA3   10010   2       10004   10019   10005   0.
CTRIA3   10011   2       10017   10005   10019   0.
CTRIA3   10012   2       10019   10018   10017   0.
CTRIA3   10013   2       10010   10009   10022   0.
CTRIA3   10014   2       10021   10022   10009   0.
CTRIA3   10015   2       10009   10008   10021   0.
CTRIA3   10016   2       10018   10021   10008   0.
CTRIA3   10017   2       10008   10007   10018   0.
CTRIA3   10018   2       10022   10021   10020   0.
CTRIA3   10019   2       10019   10020   10021   0.
CTRIA3   10020   2       10021   10018   10019   0.
$ ... 777 like lines cut
CQUAD4   10917   2       10464   10465   10501   10502   0.
CQUAD4   10918   2       10233   10232   10503   10504   0.
CQUAD4   10919   2       10232   10458   10505   10503   0.
CQUAD4   10920   2       10458   10231   10506   10505   0.
CQUAD4   10921   2       10231   10347   10507   10506   0.
CQUAD4   10922   2       10347   10345   10508   10507   0.
CQUAD4   10923   2       10345   10344   10509   10508   0.
CQUAD4   10924   2       10344   10342   10510   10509   0.
CQUAD4   10925   2       10342   10343   10511   10510   0.
CQUAD4   10926   2       10343   10359   10512   10511   0.
CQUAD4   10927   2       10359   10444   10513   10512   0.
CQUAD4   10928   2       10444   10445   10514   10513   0.
CQUAD4   10929   2       10445   10443   10515   10514   0.
CQUAD4   10930   2       10443   10451   10516   10515   0.
CQUAD4   10931   2       10451   10452   10517   10516   0.
CQUAD4   10932   2       10452   10425   10518   10517   0.
CQUAD4   10933   2       10425   10422   10519   10518   0.
CQUAD4   10934   2       10422   10420   10520   10519   0.
CQUAD4   10935   2       10420   10459   10521   10520   0.
CQUAD4   10936   2       10459   10499   10522   10521   0.
$ ... 13 like lines cut
CTRIA3   10950   2       10544   11370   10543   0.
CTRIA3   10951   2       11368   10543   11370   0.
CTRIA3   10952   2       11370   11369   11368   0.
CTRIA3   10953   2       11366   11368   11369   0.
CTRIA3   10954   2       11369   11365   11366   0.
CTRIA3   10955   2       10543   11368   10542   0.
CTRIA3   10956   2       11367   10542   11368   0.
CTRIA3   10957   2       11368   11366   11367   0.
CTRIA3   10958   2       10542   11367   10541   0.
CTRIA3   10959   2       10538   11372   10539   0.
CTRIA3   10960   2       10545   10539   11372   0.
CTRIA3   10961   2       11372   11371   10545   0.
CTRIA3   10962   2       10541   11367   10547   0.
CTRIA3   10963   2       11373   10547   11367   0.
CTRIA3   10964   2       11367   11366   11373   0.
CTRIA3   10965   2       11371   11373   11366   0.
CTRIA3   10966   2       11366   11365   11371   0.
CTRIA3   10967   2       10547   11373   10546   0.
CTRIA3   10968   2       11372   10546   11373   0.
CTRIA3   10969   2       11373   11371   11372   0.
$ ... 503 like lines cut
CQUAD4   11866   2       10686   10233   10504   11676   0.
CQUAD4   11867   2       10612   10611   11677   11678   0.
CQUAD4   11868   2       10611   10683   11679   11677   0.
CQUAD4   11869   2       10683   10610   11680   11679   0.
CQUAD4   11870   2       10610   10648   11681   11680   0.
CQUAD4   11871   2       10648   10647   11682   11681   0.
CQUAD4   11872   2       10647   10646   11683   11682   0.
CQUAD4   11873   2       10646   10644   11684   11683   0.
CQUAD4   11874   2       10644   10645   11685   11684   0.
CQUAD4   11875   2       10645   10650   11686   11685   0.
CQUAD4   11876   2       10650   10675   11687   11686   0.
CQUAD4   11877   2       10675   10676   11688   11687   0.
CQUAD4   11878   2       10676   10674   11689   11688   0.
CQUAD4   11879   2       10674   10677   11690   11689   0.
CQUAD4   11880   2       10677   10678   11691   11690   0.
CQUAD4   11881   2       10678   10669   11692   11691   0.
CQUAD4   11882   2       10669   10668   11693   11692   0.
CQUAD4   11883   2       10668   10667   11694   11693   0.
CQUAD4   11884   2       10667   10684   11695   11694   0.
CQUAD4   11885   2       10684   10697   11696   11695   0.
$ ... 11 like lines cut
CTRIA3   11900   2       11712   10707   11714   0.
CTRIA3   11901   2       11714   11713   11712   0.
CTRIA3   11902   2       11710   11712   11713   0.
CTRIA3   11903   2       11713   11709   11710   0.
CTRIA3   11904   2       10707   11712   10706   0.
CTRIA3   11905   2       11711   10706   11712   0.
CTRIA3   11906   2       11712   11710   11711   0.
CTRIA3   11907   2       10706   11711   10705   0.
CTRIA3   11908   2       10702   11716   10703   0.
CTRIA3   11909   2       10709   10703   11716   0.
CTRIA3   11910   2       11716   11715   10709   0.
CTRIA3   11911   2       10705   11711   10711   0.
CTRIA3   11912   2       11717   10711   11711   0.
CTRIA3   11913   2       11711   11710   11717   0.
CTRIA3   11914   2       11715   11717   11710   0.
CTRIA3   11915   2       11710   11709   11715   0.
CTRIA3   11916   2       10711   11717   10710   0.
CTRIA3   11917   2       11716   10710   11717   0.
CTRIA3   11918   2       11717   11715   11716   0.
CTRIA3   11919   2       10710   11716   10702   0.
$ ... 671 like lines cut
CQUAD4   12815   2       10854   10612   11678   12020   0.
CQUAD4   12816   2       10778   10777   12021   12022   0.
CQUAD4   12817   2       10777   10851   12023   12021   0.
CQUAD4   12818   2       10851   10776   12024   12023   0.
CQUAD4   12819   2       10776   10814   12025   12024   0.
CQUAD4   12820   2       10814   10813   12026   12025   0.
CQUAD4   12821   2       10813   10812   12027   12026   0.
CQUAD4   12822   2       10812   10810   12028   12027   0.
CQUAD4   12823   2       10810   10811   12029   12028   0.
CQUAD4   12824   2       10811   10816   12030   12029   0.
CQUAD4   12825   2       10816   10843   12031   12030   0.
CQUAD4   12826   2       10843   10844   12032   12031   0.
CQUAD4   12827   2       10844   10842   12033   12032   0.
CQUAD4   12828   2       10842   10845   12034   12033   0.
CQUAD4   12829   2       10845   10846   12035   12034   0.
CQUAD4   12830   2       10846   10837   12036   12035   0.
CQUAD4   12831   2       10837   10836   12037   12036   0.
CQUAD4   12832   2       10836   10835   12038   12037   0.
CQUAD4   12833   2       10835   10852   12039   12038   0.
CQUAD4   12834   2       10852   10865   12040   12039   0.
$ ... 13 like lines cut
CTRIA3   12848   2       10876   12058   10875   0.
CTRIA3   12849   2       12056   10875   12058   0.
CTRIA3   12850   2       12058   12057   12056   0.
CTRIA3   12851   2       12054   12056   12057   0.
CTRIA3   12852   2       12057   12053   12054   0.
CTRIA3   12853   2       10875   12056   10874   0.
CTRIA3   12854   2       12055   10874   12056   0.
CTRIA3   12855   2       12056   12054   12055   0.
CTRIA3   12856   2       10874   12055   10873   0.
CTRIA3   12857   2       10870   12060   10871   0.
CTRIA3   12858   2       10877   10871   12060   0.
CTRIA3   12859   2       12060   12059   10877   0.
CTRIA3   12860   2       10873   12055   10879   0.
CTRIA3   12861   2       12061   10879   12055   0.
CTRIA3   12862   2       12055   12054   12061   0.
CTRIA3   12863   2       12059   12061   12054   0.
CTRIA3   12864   2       12054   12053   12059   0.
CTRIA3   12865   2       10879   12061   10878   0.
CTRIA3   12866   2       12060   10878   12061   0.
CTRIA3   12867   2       12061   12059   12060   0.
$ ... 482 like lines cut
CQUAD4   13764   2       11022   10778   12022   12364   0.
CQUAD4   13765   2       10946   10945   12365   12366   0.
CQUAD4   13766   2       10945   11019   12367   12365   0.
CQUAD4   13767   2       11019   10944   12368   12367   0.
CQUAD4   13768   2       10944   10982   12369   12368   0.
CQUAD4   13769   2       10982   10981   12370   12369   0.
CQUAD4   13770   2       10981   10980   12371   12370   0.
CQUAD4   13771   2       10980   10978   12372   12371   0.
CQUAD4   13772   2       10978   10979   12373   12372   0.
CQUAD4   13773   2       10979   10984   12374   12373   0.
CQUAD4   13774   2       10984   11011   12375   12374   0.
CQUAD4   13775   2       11011   11012   12376   12375   0.
CQUAD4   13776   2       11012   11010   12377   12376   0.
CQUAD4   13777   2       11010   11013   12378   12377   0.
CQUAD4   13778   2       11013   11014   12379   12378   0.
CQUAD4   13779   2       11014   11005   12380   12379   0.
CQUAD4   13780   2       11005   11004   12381   12380   0.
CQUAD4   13781   2       11004   11003   12382   12381   0.
CQUAD4   13782   2       11003   11020   12383   12382   0.
CQUAD4   13783   2       11020   11033   12384   12383   0.
$ ... 11 like lines cut
CTRIA3   13798   2       12400   11043   12402   0.
CTRIA3   13799   2       12402   12401   12400   0.
CTRIA3   13800   2       12398   12400   12401   0.
CTRIA3   13801   2       12401   12397   12398   0.
CTRIA3   13802   2       11043   12400   11042   0.
CTRIA3   13803   2       12399   11042   12400   0.
CTRIA3   13804   2       12400   12398   12399   0.
CTRIA3   13805   2       11042   12399   11041   0.
CTRIA3   13806   2       11038   12404   11039   0.
CTRIA3   13807   2       11045   11039   12404   0.
CTRIA3   13808   2       12404   12403   11045   0.
CTRIA3   13809   2       11041   12399   11047   0.
CTRIA3   13810   2       12405   11047   12399   0.
CTRIA3   13811   2       12399   12398   12405   0.
CTRIA3   13812   2       12403   12405   12398   0.
CTRIA3   13813   2       12398   12397   12403   0.
CTRIA3   13814   2       11047   12405   11046   0.
CTRIA3   13815   2       12404   11046   12405   0.
CTRIA3   13816   2       12405   12403   12404   0.
CTRIA3   13817   2       11046   12404   11038   0.
$ ... 655 like lines cut
CQUAD4   14713   2       11190   10946   12366   12708   0.
CQUAD4   14714   2       11114   11113   12709   12710   0.
CQUAD4   14715   2       11113   11187   12711   12709   0.
CQUAD4   14716   2       11187   11112   12712   12711   0.
CQUAD4   14717   2       11112   11150   12713   12712   0.
CQUAD4   14718   2       11150   11149   12714   12713   0.
CQUAD4   14719   2       11149   11148   12715   12714   0.
CQUAD4   14720   2       11148   11146   12716   12715   0.
CQUAD4   14721   2       11146   11147   12717   12716   0.
CQUAD4   14722   2       11147   11152   12718   12717   0.
CQUAD4   14723   2       11152   11179   12719   12718   0.
CQUAD4   14724   2       11179   11180   12720   12719   0.
CQUAD4   14725   2       11180   11178   12721   12720   0.
CQUAD4   14726   2       11178   11181   12722   12721   0.
CQUAD4   14727   2       11181   11182   12723   12722   0.
CQUAD4   14728   2       11182   11173   12724   12723   0.
CQUAD4   14729   2       11173   11172   12725   12724   0.
CQUAD4   14730   2       11172   11171   12726   12725   0.
CQUAD4   14731   2       11171   11188   12727   12726   0.
CQUAD4   14732   2       11188   11201   12728   12727   0.
$ ... 13 like lines cut
CTRIA3   14746   2       10029   10028   11211   0.
CTRIA3   14747   2       12743   11211   10028   0.
CTRIA3   14748   2       10028   10027   12743   0.
CTRIA3   14749   2       12741   12743   10027   0.
CTRIA3   14750   2       10027   10026   12741   0.
CTRIA3   14751   2       11211   12743   11210   0.
CTRIA3   14752   2       12742   11210   12743   0.
CTRIA3   14753   2       12743   12741   12742   0.
CTRIA3   14754   2       11210   12742   11209   0.
CTRIA3   14755   2       11206   12745   11207   0.
CTRIA3   14756   2       11212   11207   12745   0.
CTRIA3   14757   2       12745   12744   11212   0.
CTRIA3   14758   2       11209   12742   11214   0.
CTRIA3   14759   2       12746   11214   12742   0.
CTRIA3   14760   2       12742   12741   12746   0.
CTRIA3   14761   2       12744   12746   12741   0.
CTRIA3   14762   2       12741   10026   12744   0.
CTRIA3   14763   2       11214   12746   11213   0.
CTRIA3   14764   2       12745   11213   12746   0.
CTRIA3   14765   2       12746   12744   12745   0.
$ ... 612 like lines cut
CQUAD4   15662   2       11352   11114   12710   13041   0.
CQUAD4   15663   2       10465   11277   13042   10501   0.
CQUAD4   15664   2       11277   11349   13043   13042   0.
CQUAD4   15665   2       11349   11276   13044   13043   0.
CQUAD4   15666   2       11276   11313   13045   13044   0.
CQUAD4   15667   2       11313   11312   13046   13045   0.
CQUAD4   15668   2       11312   11311   13047   13046   0.
CQUAD4   15669   2       11311   11309   13048   13047   0.
CQUAD4   15670   2       11309   11310   13049   13048   0.
CQUAD4   15671   2       11310   11315   13050   13049   0.
CQUAD4   15672   2       11315   11342   13051   13050   0.
CQUAD4   15673   2       11342   11343   13052   13051   0.
CQUAD4   15674   2       11343   11341   13053   13052   0.
CQUAD4   15675   2       11341   11344   13054   13053   0.
CQUAD4   15676   2       11344   11345   13055   13054   0.
CQUAD4   15677   2       11345   11336   13056   13055   0.
CQUAD4   15678   2       11336   11335   13057   13056   0.
CQUAD4   15679   2       11335   11334   13058   13057   0.
CQUAD4   15680   2       11334   11350   13059   13058   0.
CQUAD4   15681   2       11350   11363   13060   13059   0.
$ ... 13 like lines cut
CTRIA3   26912   2       10181   24913   10175   0.
CTRIA3   26923   2       10182   10184   24919   0.
CTRIA3   26924   2       24919   10181   10182   0.
CTRIA3   26956   2       10175   24913   10196   0.
CTRIA3   26964   2       10208   24932   10202   0.
CTRIA3   26975   2       10209   10211   24938   0.
CTRIA3   26987   2       24947   10184   10224   0.
CTRIA3   26988   2       10224   10223   24947   0.
CTRIA3   26999   2       10202   24932   10223   0.
CTRIA3   27005   2       10233   24951   10229   0.
CTRIA3   27008   2       24956   10211   10238   0.
CTRIA3   27009   2       10238   10237   24956   0.
CTRIA3   27020   2       10229   24951   10237   0.
CTRIA3   39061   2       10556   11382   32399   0.
CTRIA3   39074   2       32399   11382   32416   0.
CTRIA3   39075   2       11398   32416   11382   0.
CTRIA3   39079   2       32416   11398   10561   0.
CTRIA3   39091   2       32432   32431   32429   0.
CTRIA3   39092   2       32428   32429   32431   0.
CTRIA3   39093   2       32431   32430   32428   0.
$ ... 414 like lines cut
CQUAD4   42327   2       10685   32622   34367   11707   0.
CQUAD4   42328   2       32622   10686   11676   34367   0.
CTRIA3   45102   2       36419   11714   10707   0.
CTRIA3   45188   2       36437   36646   36436   0.
CTRIA3   45189   2       36644   36436   36646   0.
CTRIA3   45190   2       36646   36645   36644   0.
CTRIA3   45191   2       36642   36644   36645   0.
CTRIA3   45192   2       36645   36641   36642   0.
CTRIA3   45193   2       36436   36644   10728   0.
CTRIA3   45194   2       11745   10728   36644   0.
CTRIA3   45195   2       36644   36642   11745   0.
CTRIA3   45197   2       36422   36649   36439   0.
CTRIA3   45198   2       36647   36439   36649   0.
CTRIA3   45199   2       36649   36648   36647   0.
CTRIA3   45200   2       36645   36647   36648   0.
CTRIA3   45201   2       36648   36641   36645   0.
CTRIA3   45202   2       36439   36647   36438   0.
CTRIA3   45203   2       36646   36438   36647   0.
CTRIA3   45204   2       36647   36645   36646   0.
CTRIA3   45205   2       36438   36646   36437   0.
CTRIA3   45206   2       36419   36652   36539   0.
CTRIA3   45207   2       36650   36539   36652   0.
$ ... 293 like lines cut
CQUAD4   46150   2       11031   36604   37009   12387   0.
CQUAD4   46151   2       36604   11028   12389   37009   0.
CTRIA3   50326   2       10888   12070   36530   0.
CTRIA3   50363   2       36530   12070   10894   0.
CTRIA3   50446   2       12145   39741   12143   0.
CTRIA3   50447   2       36876   12143   39741   0.
CTRIA3   50448   2       39741   36872   36876   0.
CTRIA3   50451   2       12143   36876   12142   0.
CTRIA3   50454   2       39743   10901   12148   0.
CTRIA3   50455   2       12148   39744   39743   0.
CTRIA3   50456   2       39741   39743   39744   0.
CTRIA3   50457   2       39744   36872   39741   0.
CTRIA3   50458   2       10901   39743   10902   0.
CTRIA3   50459   2       12145   10902   39743   0.
CTRIA3   50460   2       39743   39741   12145   0.
CTRIA3   50462   2       36530   36879   10888   0.
CTRIA3   50463   2       39746   10888   36879   0.
CTRIA3   50464   2       36879   36878   39746   0.
CTRIA3   50465   2       39744   39746   36878   0.
CTRIA3   50466   2       36878   36872   39744   0.
CTRIA3   50467   2       10888   39746   10889   0.
CTRIA3   50468   2       12148   10889   39746   0.
$ ... 743 like lines cut
$ Elements and Element Properties for region : pshellr.3
PSHELL   3       1       .045    1               1
$ Pset: "pshellr.3" will be imported as: "pshell.3"
CQUAD4   20001   3       10036   23391   23390   10038   0.
CQUAD4   20002   3       10035   23392   23391   10036   0.
CQUAD4   20003   3       10054   23395   23387   10010   0.
CQUAD4   20004   3       10052   23396   23395   10054   0.
CQUAD4   20005   3       10051   23397   23396   10052   0.
CQUAD4   20006   3       10022   23388   23389   10020   0.
CQUAD4   20007   3       10010   23387   23388   10022   0.
CQUAD4   20011   3       10011   23386   23387   10010   0.
CQUAD4   20012   3       10013   23385   23386   10011   0.
CQUAD4   20013   3       10016   20001   23385   10013   0.
CQUAD4   20014   3       10129   23416   23400   10045   0.
CQUAD4   20015   3       10127   23417   23416   10129   0.
CQUAD4   20016   3       10126   23418   23417   10127   0.
CQUAD4   20017   3       10140   23424   20006   10143   0.
CQUAD4   20018   3       10138   23425   23424   10140   0.
CQUAD4   20019   3       10029   20003   23425   10138   0.
CQUAD4   20020   3       10030   23394   20003   10029   0.
CQUAD4   20021   3       10032   23393   23394   10030   0.
CQUAD4   20022   3       10035   23392   23393   10032   0.
CQUAD4   20023   3       10066   23402   23392   10035   0.
$ ... 5470 like lines cut
$ Elements and Element Properties for region : pshellr.15
PSHELL   15      1       .015    1               1
$ Pset: "pshellr.15" will be imported as: "pshell.15"
CQUAD4   64198   15      48311   48474   48391   48310   0.
CQUAD4   64199   15      48287   48472   48473   48313   0.
CQUAD4   64236   15      48474   48510   48394   48391   0.
CQUAD4   64237   15      48472   48508   48509   48473   0.
CQUAD4   64274   15      48510   48546   48397   48394   0.
CQUAD4   64275   15      48508   48544   48545   48509   0.
CQUAD4   64312   15      48546   48582   48400   48397   0.
CQUAD4   64313   15      48544   48580   48581   48545   0.
CQUAD4   64350   15      48582   3024    3025    48400   0.
CQUAD4   64351   15      48580   3022    3023    48581   0.
CQUAD4   64468   15      48313   48473   48614   48613   0.
CQUAD4   64469   15      48613   48614   48474   48311   0.
CQUAD4   64470   15      48473   48509   48615   48614   0.
CQUAD4   64471   15      48614   48615   48510   48474   0.
CQUAD4   64472   15      48509   48545   48616   48615   0.
CQUAD4   64473   15      48615   48616   48546   48510   0.
CQUAD4   64474   15      48545   48581   48617   48616   0.
CQUAD4   64475   15      48616   48617   48582   48546   0.
CQUAD4   64476   15      48581   3023    3087    48617   0.
CQUAD4   64477   15      48617   3087    3024    48582   0.
$ Elements and Element Properties for region : pshellr.25
PSHELL   25      1       .025    1               1
$ Pset: "pshellr.25" will be imported as: "pshell.25"
CQUAD4   63046   25      11107   22128   47830   47538   0.
CQUAD4   63092   25      22128   22254   47876   47830   0.
CQUAD4   63138   25      22254   22380   47922   47876   0.
CQUAD4   63184   25      22380   22506   47968   47922   0.
CQUAD4   63230   25      22506   1680    3000    47968   0.
CQUAD4   64371   25      48363   48411   48391   48310   0.
CQUAD4   64383   25      48411   48422   48394   48391   0.
CQUAD4   64395   25      48422   48433   48397   48394   0.
CQUAD4   64407   25      48433   48444   48400   48397   0.
CQUAD4   64419   25      48444   3069    3025    48400   0.
CQUAD4   64458   25      47538   47830   48608   48607   0.
CQUAD4   64459   25      48607   48608   48411   48363   0.
CQUAD4   64460   25      47830   47876   48609   48608   0.
CQUAD4   64461   25      48608   48609   48422   48411   0.
CQUAD4   64462   25      47876   47922   48610   48609   0.
CQUAD4   64463   25      48609   48610   48433   48422   0.
CQUAD4   64464   25      47922   47968   48611   48610   0.
CQUAD4   64465   25      48610   48611   48444   48433   0.
CQUAD4   64466   25      47968   3000    3086    48611   0.
CQUAD4   64467   25      48611   3086    3069    48444   0.
$ Elements and Element Properties for region : pshellr.30
PSHELL   30      1       .03     1               1
$ Pset: "pshellr.30" will be imported as: "pshell.30"
CQUAD4   39913   30      32558   33149   32840   32557   0.
CQUAD4   39915   30      32534   33147   33148   32560   0.
CQUAD4   39982   30      33149   33212   32844   32840   0.
CQUAD4   39984   30      33147   33210   33211   33148   0.
CQUAD4   40051   30      33212   33275   32848   32844   0.
CQUAD4   40053   30      33210   33273   33274   33211   0.
CQUAD4   40120   30      33275   33338   32852   32848   0.
CQUAD4   40122   30      33273   33336   33337   33274   0.
CQUAD4   40189   30      33338   2497    2498    32852   0.
CQUAD4   40191   30      33336   2495    2496    33337   0.
CQUAD4   60026   30      32560   33148   45764   45763   0.
CQUAD4   60027   30      45763   45764   33149   32558   0.
CQUAD4   60028   30      33148   33211   45766   45764   0.
CQUAD4   60029   30      45764   45766   33212   33149   0.
CQUAD4   60030   30      33211   33274   45768   45766   0.
CQUAD4   60031   30      45766   45768   33275   33212   0.
CQUAD4   60032   30      33274   33337   45770   45768   0.
CQUAD4   60033   30      45768   45770   33338   33275   0.
CQUAD4   60034   30      33337   2496    2915    45770   0.
CQUAD4   60035   30      45770   2915    2497    33338   0.
$ Elements and Element Properties for region : pshellr.35
PSHELL   35      1       .035    1               1
$ Pset: "pshellr.35" will be imported as: "pshell.35"
CQUAD4   61980   35      46897   47060   46977   46896   0.
CQUAD4   61981   35      36574   37530   47059   36583   0.
CQUAD4   62018   35      47060   47096   46980   46977   0.
CQUAD4   62019   35      37530   37595   47095   47059   0.
CQUAD4   62056   35      47096   47132   46983   46980   0.
CQUAD4   62057   35      37595   37660   47131   47095   0.
CQUAD4   62094   35      47132   47168   46986   46983   0.
CQUAD4   62095   35      37660   37725   47167   47131   0.
CQUAD4   62132   35      47168   2936    2937    46986   0.
CQUAD4   62133   35      37725   2718    2719    47167   0.
CQUAD4   62250   35      36583   47059   47200   47199   0.
CQUAD4   62251   35      47199   47200   47060   46897   0.
CQUAD4   62252   35      47059   47095   47201   47200   0.
CQUAD4   62253   35      47200   47201   47096   47060   0.
CQUAD4   62254   35      47095   47131   47202   47201   0.
CQUAD4   62255   35      47201   47202   47132   47096   0.
CQUAD4   62256   35      47131   47167   47203   47202   0.
CQUAD4   62257   35      47202   47203   47168   47132   0.
CQUAD4   62258   35      47167   2719    2996    47203   0.
CQUAD4   62259   35      47203   2996    2936    47168   0.
$ Elements and Element Properties for region : pshellr.40
PSHELL   40      1       .04     1               1
$ Pset: "pshellr.40" will be imported as: "pshell.40"
CQUAD4   20046   40      10210   23444   23443   10211   0.
CQUAD4   20183   40      23444   23566   23565   23443   0.
CQUAD4   20320   40      23566   23688   23687   23565   0.
CQUAD4   20457   40      23688   23810   23809   23687   0.
CQUAD4   20594   40      23810   52      51      23809   0.
CQUAD4   40268   40      32673   32892   32840   32557   0.
CQUAD4   40271   40      32651   32875   32876   32650   0.
CQUAD4   40272   40      32652   32874   32875   32651   0.
CQUAD4   40273   40      32480   32839   32874   32652   0.
CQUAD4   40327   40      32892   32947   32844   32840   0.
CQUAD4   40330   40      32875   32930   32931   32876   0.
CQUAD4   40331   40      32874   32929   32930   32875   0.
CQUAD4   40332   40      32839   32843   32929   32874   0.
CQUAD4   40386   40      32947   33002   32848   32844   0.
CQUAD4   40389   40      32930   32985   32986   32931   0.
CQUAD4   40390   40      32929   32984   32985   32930   0.
CQUAD4   40391   40      32843   32847   32984   32929   0.
CQUAD4   40445   40      33002   33057   32852   32848   0.
CQUAD4   40448   40      32985   33040   33041   32986   0.
CQUAD4   40449   40      32984   33039   33040   32985   0.
$ ... 35 like lines cut
$ Elements and Element Properties for region : pshellr.50
PSHELL   50      1       .05     1               1
$ Pset: "pshellr.50" will be imported as: "pshell.50"
CQUAD4   20037   50      10183   23436   23435   10184   0.
CQUAD4   20174   50      23436   23558   23557   23435   0.
CQUAD4   20311   50      23558   23680   23679   23557   0.
CQUAD4   20448   50      23680   23802   23801   23679   0.
CQUAD4   20585   50      23802   45      44      23801   0.
CQUAD4   21907   50      10763   20776   20775   10764   0.
CQUAD4   22044   50      20776   20902   20901   20775   0.
CQUAD4   22181   50      20902   21028   21027   20901   0.
CQUAD4   22318   50      21028   21154   21153   21027   0.
CQUAD4   22455   50      21154   885     884     21153   0.
CQUAD4   40259   50      32665   32884   32876   32650   0.
CQUAD4   40318   50      32884   32939   32931   32876   0.
CQUAD4   40377   50      32939   32994   32986   32931   0.
CQUAD4   40436   50      32994   33049   33041   32986   0.
CQUAD4   40495   50      33049   2621    2618    33041   0.
CQUAD4   60006   50      10184   23435   45744   45743   0.
CQUAD4   60007   50      45743   45744   32884   32665   0.
CQUAD4   60008   50      23435   23557   45746   45744   0.
CQUAD4   60009   50      45744   45746   32939   32884   0.
CQUAD4   60010   50      23557   23679   45748   45746   0.
$ ... 40 like lines cut
$ Elements and Element Properties for region : pshellr.55
PSHELL   55      1       .055    1               1
$ Pset: "pshellr.55" will be imported as: "pshell.55"
CQUAD4   39900   55      32481   33131   32839   32480   0.
CQUAD4   39901   55      32483   33130   33131   32481   0.
CQUAD4   39902   55      32486   33129   33130   32483   0.
CQUAD4   39969   55      33131   33194   32843   32839   0.
CQUAD4   39970   55      33130   33193   33194   33131   0.
CQUAD4   39971   55      33129   33192   33193   33130   0.
CQUAD4   40038   55      33194   33257   32847   32843   0.
CQUAD4   40039   55      33193   33256   33257   33194   0.
CQUAD4   40040   55      33192   33255   33256   33193   0.
CQUAD4   40107   55      33257   33320   32851   32847   0.
CQUAD4   40108   55      33256   33319   33320   33257   0.
CQUAD4   40109   55      33255   33318   33319   33256   0.
CQUAD4   40176   55      33320   2478    2479    32851   0.
CQUAD4   40177   55      33319   2477    2478    33320   0.
CQUAD4   40178   55      33318   2476    2477    33319   0.
CQUAD4   61969   55      46829   47044   46976   46828   0.
CQUAD4   61970   55      46831   47043   47044   46829   0.
CQUAD4   61971   55      46834   47042   47043   46831   0.
CQUAD4   62007   55      47044   47080   46979   46976   0.
CQUAD4   62008   55      47043   47079   47080   47044   0.
$ ... 25 like lines cut
$ Referenced Material Records
$ Material Record : mat1.1
$ Description of Material :
MAT1     1       9.8+6           .17     2.045-4 1.7-8
$ Nodes of Group : Mirror_All
GRID     1       1       4.57261 60.     .205848 1
GRID     2       1       4.3945  55.6934 .190093 1
GRID     3       1       4.24321 51.0517 .177207 1
GRID     4       1       4.1217  46.1021 .167188 1
GRID     5       1       3.75292 44.7047 .138569 1
GRID     6       1       3.38686 43.0039 .112826 1
GRID     7       1       3.38686 16.9961 .112826 1
GRID     8       1       3.75292 15.2953 .138569 1
GRID     9       1       4.1217  13.8979 .167188 1
GRID     10      1       4.24321 8.94828 .177207 1
GRID     11      1       4.3945  4.30662 .190093 1
GRID     12      1       4.57261 0.      .205848 1
GRID     13      1       4.3945  42.5198 .190093 1
GRID     14      1       4.68244 39.367  .215876 1
GRID     15      1       4.98289 36.5868 .244537 1
GRID     16      1       4.95367 32.2042 .241671 1
GRID     17      1       4.95367 27.7958 .241671 1
GRID     18      1       4.98289 23.4132 .244537 1
GRID     19      1       4.68244 20.633  .215876 1
GRID     20      1       4.3945  17.4802 .190093 1
$ ... 10263 like lines cut
$ 
$ SEQGP cards from BANDIT
$
SEQGP          1    7241     166    7236       2    7073     164    7069
SEQGP        165    7235     162    7068     161    7178       3    6896
SEQGP        163    6893       4    6734     117    6672     168    6832
SEQGP        124    6833     125    7009     167    7008       5    6732
SEQGP        169    6892       6    6731       9    5721     176    5716
SEQGP         10    5546     174    5542     175    5717     172    5543
SEQGP        171    5650      11    5374     173    5371      12    5205
SEQGP         15    6241     185    6236      16    6073     118    6169
SEQGP        179    5995       7    6059     177    5879     178    5817
SEQGP          8    5880     121    5996     119    5818     183    6069
SEQGP        184    6234     181    6067     180    6233      17    5891
SEQGP        182    5888      18    5726     188    6556      13    6557
SEQGP        186    6390     187    6389      14    6392     191    6553
SEQGP        189    6554     190    6387     194    6230     122    6325
SEQGP        192    6386     193    6231     123    6493     197    5885
SEQGP        195    6060     196    6066      19    5724     198    5886
SEQGP         20    5722     200    6567     202    6569     203    6745
SEQGP        199    6744     201    6402      21    6406      22    6249
SEQGP        204    6905     207    7074     170    7242     205    7077
SEQGP        206    6900     210    6735     208    6897     209    6738
$ ... 2551 like lines cut
$
& SPC's froun in G.P. singularity proc with EPS_SING
$
$ C.G. Point
GRID,60001,,0.,0.,-.32
SPC1,3,123456,60001
$
$ Loads for Load Case : Oload
$$SPCADD   2       3
SPCADD   2       3       
LOAD     2       1.      1.      1
$ Loads for Load Case : 1G
LOAD     4       1.      1.      3
$ Displacement Constraints of Load Set : ball_trans
SPC1     3       123     32480   46828   48242
$ Pressure Loads of Load Set : oload
$$PLOAD4   1       1      -1.                              THRU    5742
PLOAD2   1       -1.     1       THRU    5742
$ Gravity Loading of Load Set : 1g_z
GRAV     3       0       386.4   0.      0.     -1.
$ Referenced Coordinate Frames
CORD2C   1               0.      0.      0.      0.      0.      1.
         1.      0.      0.
ENDDATA 515b3571
